data_global _chemical_name MyName
_cell_length_a 16.007990
_cell_length_b 16.007990
_cell_length_c 16.007990
_cell_angle_alpha 60.000001
_cell_angle_beta 60.000001
_cell_angle_gamma 60.000000
_symmetry_space_group_name_H-M 'P 1'
loop_
_atom_site_label
_atom_site_fract_x
_atom_site_fract_y
_atom_site_fract_z
Ga 0.250000 0.250000 0.250000
Ga 0.500000 0.250000 0.250000
Ga 0.750000 0.250000 0.250000
Ga 1.000000 0.250000 0.250000
Ga 0.250000 0.500000 0.250000
Ga 0.500000 0.500000 0.250000
Ga 0.750000 0.500000 0.250000
Ga 1.000000 0.500000 0.250000
Ga 0.250000 0.750000 0.250000
Ga 0.500000 0.750000 0.250000
Ga 0.750000 0.750000 0.250000
Ga 1.000000 0.750000 0.250000
Ga 0.250000 1.000000 0.250000
Ga 0.500000 1.000000 0.250000
Ga 0.750000 1.000000 0.250000
Ga 1.000000 1.000000 0.250000
Ga 0.250000 0.250000 0.500000
Ga 0.500000 0.250000 0.500000
Ga 0.750000 0.250000 0.500000
Ga 1.000000 0.250000 0.500000
Ga 0.250000 0.500000 0.500000
Ga 0.500000 0.500000 0.500000
Ga 0.750000 0.500000 0.500000
Ga 1.000000 0.500000 0.500000
Ga 0.250000 0.750000 0.500000
Ga 0.500000 0.750000 0.500000
Ga 0.750000 0.750000 0.500000
Ga 1.000000 0.750000 0.500000
Ga 0.250000 1.000000 0.500000
Ga 0.500000 1.000000 0.500000
B 0.750000 1.000000 0.500000
Ga 1.000000 1.000000 0.500000
Ga 0.250000 0.250000 0.750000
B 0.500000 0.250000 0.750000
B 0.750000 0.250000 0.750000
Ga 1.000000 0.250000 0.750000
Ga 0.250000 0.500000 0.750000
Ga 0.500000 0.500000 0.750000
B 0.750000 0.500000 0.750000
Ga 1.000000 0.500000 0.750000
B 0.250000 0.750000 0.750000
Ga 0.500000 0.750000 0.750000
Ga 0.750000 0.750000 0.750000
Ga 1.000000 0.750000 0.750000
Ga 0.250000 1.000000 0.750000
Ga 0.500000 1.000000 0.750000
Ga 0.750000 1.000000 0.750000
Ga 1.000000 1.000000 0.750000
Ga 0.250000 0.250000 1.000000
Ga 0.500000 0.250000 1.000000
Ga 0.750000 0.250000 1.000000
Ga 1.000000 0.250000 1.000000
Ga 0.250000 0.500000 1.000000
Ga 0.500000 0.500000 1.000000
Ga 0.750000 0.500000 1.000000
Ga 1.000000 0.500000 1.000000
Ga 0.250000 0.750000 1.000000
Ga 0.500000 0.750000 1.000000
Ga 0.750000 0.750000 1.000000
Ga 1.000000 0.750000 1.000000
Ga 0.250000 1.000000 1.000000
Ga 0.500000 1.000000 1.000000
B 0.750000 1.000000 1.000000
Ga 1.000000 1.000000 1.000000
As 0.062500 0.062500 0.062500
As 0.312500 0.062500 0.062500
As 0.562500 0.062500 0.062500
As 0.812500 0.062500 0.062500
As 0.062500 0.312500 0.062500
As 0.312500 0.312500 0.062500
As 0.562500 0.312500 0.062500
As 0.812500 0.312500 0.062500
As 0.062500 0.562500 0.062500
As 0.312500 0.562500 0.062500
As 0.562500 0.562500 0.062500
As 0.812500 0.562500 0.062500
As 0.062500 0.812500 0.062500
As 0.312500 0.812500 0.062500
As 0.562500 0.812500 0.062500
As 0.812500 0.812500 0.062500
As 0.062500 0.062500 0.312500
As 0.312500 0.062500 0.312500
As 0.562500 0.062500 0.312500
As 0.812500 0.062500 0.312500
As 0.062500 0.312500 0.312500
As 0.312500 0.312500 0.312500
As 0.562500 0.312500 0.312500
As 0.812500 0.312500 0.312500
As 0.062500 0.562500 0.312500
As 0.312500 0.562500 0.312500
As 0.562500 0.562500 0.312500
As 0.812500 0.562500 0.312500
As 0.062500 0.812500 0.312500
As 0.312500 0.812500 0.312500
As 0.562500 0.812500 0.312500
As 0.812500 0.812500 0.312500
As 0.062500 0.062500 0.562500
As 0.312500 0.062500 0.562500
As 0.562500 0.062500 0.562500
As 0.812500 0.062500 0.562500
As 0.062500 0.312500 0.562500
As 0.312500 0.312500 0.562500
As 0.562500 0.312500 0.562500
As 0.812500 0.312500 0.562500
As 0.062500 0.562500 0.562500
As 0.312500 0.562500 0.562500
As 0.562500 0.562500 0.562500
As 0.812500 0.562500 0.562500
As 0.062500 0.812500 0.562500
As 0.312500 0.812500 0.562500
As 0.562500 0.812500 0.562500
As 0.812500 0.812500 0.562500
As 0.062500 0.062500 0.812500
As 0.312500 0.062500 0.812500
As 0.562500 0.062500 0.812500
As 0.812500 0.062500 0.812500
As 0.062500 0.312500 0.812500
As 0.312500 0.312500 0.812500
As 0.562500 0.312500 0.812500
As 0.812500 0.312500 0.812500
As 0.062500 0.562500 0.812500
As 0.312500 0.562500 0.812500
As 0.562500 0.562500 0.812500
As 0.812500 0.562500 0.812500
As 0.062500 0.812500 0.812500
As 0.312500 0.812500 0.812500
As 0.562500 0.812500 0.812500
As 0.812500 0.812500 0.812500
