#======================================================================

# CRYSTAL DATA

#----------------------------------------------------------------------

data_VESTA_phase_1


_pd_phase_name                         'Si2'
_cell_length_a                         7.99000
_cell_length_b                         7.99000
_cell_length_c                         7.99000
_cell_angle_alpha                      60.00000
_cell_angle_beta                       60.00000
_cell_angle_gamma                      60.00000
_symmetry_space_group_name_H-M         'P 1'
_symmetry_Int_Tables_number            1

loop_
_symmetry_equiv_pos_as_xyz
   'x, y, z'

loop_
   _atom_site_label
   _atom_site_occupancy
   _atom_site_fract_x
   _atom_site_fract_y
   _atom_site_fract_z
   _atom_site_adp_type
   _atom_site_B_iso_or_equiv
   _atom_site_type_symbol
   Ga         1.0     0.000000      0.000000      0.000000     Biso  1.000000 Ga
   Ga         1.0     0.000000      0.000000      0.500000     Biso  1.000000 Ga
   Ga         1.0     0.000000      0.500000      0.000000     Biso  1.000000 Ga
   Ga         1.0     0.000000      0.500000      0.500000     Biso  1.000000 Ga
   Ga         1.0     0.500000      0.000000      0.000000     Biso  1.000000 Ga
   Ga         1.0     0.500000      0.000000      0.500000     Biso  1.000000 Ga
   Ga         1.0     0.500000      0.500000      0.000000     Biso  1.000000 Ga
   Ga         1.0     0.500000      0.500000      0.500000     Biso  1.000000 Ga
   As         1.0     0.125000      0.125000      0.125000     Biso  1.000000 As
   As         1.0     0.125000      0.125000      0.625000     Biso  1.000000 As
   As         1.0     0.125000      0.625000      0.125000     Biso  1.000000 As
   As         1.0     0.125000      0.625000      0.625000     Biso  1.000000 As
   As         1.0     0.625000      0.125000      0.125000     Biso  1.000000 As
   As         1.0     0.625000      0.125000      0.625000     Biso  1.000000 As
   As         1.0     0.625000      0.625000      0.125000     Biso  1.000000 As
   As         1.0     0.625000      0.625000      0.625000     Biso  1.000000 As
